Circuit: * C:\Users\Pratyush Anand\Documents\LTspiceXVII\Draft2.asc

WARNING: Node N005 is floating.
WARNING: Node N006 is floating.
WARNING: Node V- is floating.

Direct Newton iteration for .op point succeeded.

Date: Tue Aug 20 23:11:13 2019
Total elapsed time: 0.048 seconds.

tnom = 27
temp = 27
method = modified trap
totiter = 1105
traniter = 1102
tranpoints = 552
accept = 546
rejected = 6
matrix size = 21
fillins = 28
solver = Normal
Matrix Compiler1: 2.43 KB object code size  0.5/0.3/[0.2]
Matrix Compiler2: 2.10 KB object code size  0.3/0.2/[0.2]

